tdcosim/data/distribution/123Bus/ieee123_Curr_Elem.Txt

CIRCUIT ELEMENT CURRENTS

(Currents into element from indicated bus)

Power Delivery Elements

  Bus    Phase    Magnitude, A     Angle      (Real)   +j  (Imag)

ELEMENT = "Vsource.SOURCE"
150          1           656.07 /_  158.3 =    -609.72 +j    242.21
150          2           426.02 /_   40.4 =     324.57 +j    275.95
150          3           523.86 /_  -78.5 =     104.74 +j   -513.29
------------
150          0           656.07 /_  -21.7 =     609.72 +j   -242.21
150          0           426.02 /_ -139.6 =    -324.57 +j   -275.95
150          0           523.86 /_  101.5 =    -104.74 +j    513.29

ELEMENT = "Transformer.REG1A"
150          1           656.07 /_  -21.7 =     609.72 +j   -242.21
150          2           426.02 /_ -139.6 =    -324.57 +j   -275.95
150          3           523.86 /_  101.5 =    -104.74 +j    513.29
150          0           180.48 /_  178.5 =    -180.42 +j    4.8772
------------
150R         1           628.57 /_  158.3 =    -584.17 +j    232.06
150R         2           408.16 /_   40.4 =     310.96 +j    264.39
150R         3            501.9 /_  -78.5 =     100.35 +j   -491.77
150R         0           172.92 /_   -1.5 =     172.85 +j   -4.6728

ELEMENT = "Line.L115"
149          1           628.57 /_  -21.7 =     584.17 +j   -232.06
149          2           408.16 /_ -139.6 =    -310.96 +j   -264.39
149          3            501.9 /_  101.5 =    -100.35 +j    491.77
------------
1            1           628.57 /_  158.3 =    -584.17 +j    232.06
1            2           408.17 /_   40.4 =     310.97 +j    264.39
1            3            501.9 /_  -78.5 =     100.35 +j   -491.77

ELEMENT = "Line.L1"
1            2           8.9427 /_ -146.9 =    -7.4896 +j   -4.8865
------------
2            2           8.9429 /_   33.1 =     7.4899 +j    4.8863

ELEMENT = "Line.L2"
1            3           46.576 /_   93.0 =    -2.4398 +j    46.512
------------
3            3           46.577 /_  -87.0 =     2.4393 +j   -46.513

ELEMENT = "Line.L3"
1            1            610.6 /_  -21.5 =     568.11 +j    -223.8
1            2            399.3 /_ -139.5 =    -303.48 +j    -259.5
1            3            455.9 /_  102.4 =    -97.908 +j    445.26
------------
7            1            610.6 /_  158.5 =    -568.11 +j    223.81
7            2            399.3 /_   40.5 =     303.48 +j     259.5
7            3            455.9 /_  -77.6 =     97.907 +j   -445.26

ELEMENT = "Line.L4"
3            3            18.03 /_   93.0 =   -0.94866 +j    18.005
------------
4            3            18.03 /_  -87.0 =    0.94829 +j   -18.005

ELEMENT = "Line.L5"
3            3           28.547 /_   93.0 =    -1.4906 +j    28.508
------------
5            3           28.547 /_  -87.0 =       1.49 +j   -28.508

ELEMENT = "Line.L6"
5            3            19.23 /_   93.0 =    -1.0025 +j    19.204
------------
6            3            19.23 /_  -87.0 =      1.002 +j   -19.204

ELEMENT = "Line.L7"
7            1           601.55 /_  -21.4 =     560.04 +j   -219.58
7            2            399.3 /_ -139.5 =    -303.48 +j    -259.5
7            3            455.9 /_  102.4 =    -97.907 +j    445.26
------------
8            1           601.55 /_  158.6 =    -560.04 +j    219.58
8            2            399.3 /_   40.5 =     303.48 +j     259.5
8            3            455.9 /_  -77.6 =     97.906 +j   -445.26

ELEMENT = "Line.L8"
8            2           8.9688 /_ -147.3 =    -7.5467 +j   -4.8462
------------
12           2            8.969 /_   32.7 =     7.5471 +j     4.846

ELEMENT = "Line.L9"
8            1           46.251 /_  -28.0 =     40.825 +j   -21.737
------------
9            1           46.251 /_  152.0 =    -40.825 +j    21.737

ELEMENT = "Line.L10"
8            1           555.63 /_  -20.9 =     519.22 +j   -197.84
8            2           390.41 /_ -139.3 =    -295.93 +j   -254.65
8            3            455.9 /_  102.4 =    -97.906 +j    445.26
------------
13           1           555.63 /_  159.1 =    -519.22 +j    197.84
13           2           390.41 /_   40.7 =     295.93 +j    254.65
13           3            455.9 /_  -77.6 =     97.905 +j   -445.26

ELEMENT = "Line.L11"
9R           1           28.072 /_  -28.0 =     24.775 +j     -13.2
------------
14           1           28.073 /_  151.9 =    -24.775 +j    13.201

ELEMENT = "Line.L12"
13           3           46.444 /_   92.3 =    -1.8814 +j    46.406
------------
34           3           46.445 /_  -87.7 =     1.8811 +j   -46.406

ELEMENT = "Line.L13"
13           1           228.96 /_  -30.4 =     197.47 +j   -115.88
13           2           155.63 /_ -155.1 =    -141.14 +j   -65.566
13           3           153.35 /_   88.6 =     3.6636 +j     153.3
------------
18           1           228.96 /_  149.6 =    -197.47 +j    115.89
18           2           155.63 /_   24.9 =     141.14 +j    65.565
18           3           153.35 /_  -91.4 =    -3.6657 +j   -153.31

ELEMENT = "Line.L14"
14           1           18.756 /_  -28.1 =     16.552 +j   -8.8208
------------
11           1           18.756 /_  151.9 =    -16.552 +j    8.8213

ELEMENT = "Line.L15"
14           1           9.3168 /_  -28.0 =     8.2228 +j   -4.3805
------------
10           1            9.317 /_  152.0 =    -8.2228 +j     4.381

ELEMENT = "Line.L16"
15           3           18.301 /_   92.3 =    -0.7373 +j    18.286
------------
16           3           18.301 /_  -87.7 =    0.73661 +j   -18.287

ELEMENT = "Line.L17"
15           3           9.1458 /_   92.3 =   -0.37034 +j    9.1383
------------
17           3           9.1461 /_  -87.7 =     0.3697 +j   -9.1386

ELEMENT = "Line.L18"
18           1           37.298 /_  -28.9 =     32.664 +j   -18.006
------------
19           1           37.298 /_  151.1 =    -32.664 +j    18.006

ELEMENT = "Line.L19"
18           1           55.853 /_  -29.0 =     48.834 +j   -27.107
18           2           19.216 /_ -147.8 =    -16.257 +j   -10.245
18           3           55.403 /_   92.2 =     -2.156 +j    55.361
------------
21           1           55.853 /_  151.0 =    -48.834 +j    27.108
21           2           19.216 /_   32.2 =     16.258 +j    10.245
21           3           55.404 /_  -87.8 =     2.1553 +j   -55.362

ELEMENT = "Line.L20"
19           1           18.634 /_  -28.9 =     16.317 +j   -8.9979
------------
20           1           18.634 /_  151.1 =    -16.317 +j    8.9986

ELEMENT = "Line.L21"
21           2           19.218 /_ -147.8 =    -16.261 +j   -10.242
------------
22           2           19.219 /_   32.2 =     16.262 +j    10.241

ELEMENT = "Line.L22"
21           1           55.853 /_  -29.0 =     48.834 +j   -27.108
21           2        0.0046556 /_  -34.8 =  0.0038238 +j -0.0026558
21           3           55.404 /_   92.2 =    -2.1553 +j    55.362
------------
23           1           55.854 /_  151.0 =    -48.834 +j    27.109
23           2        0.0039168 /_  145.2 =  -0.0032171 +j 0.0022342
23           3           55.404 /_  -87.8 =     2.1546 +j   -55.362

ELEMENT = "Line.L23"
23           3            18.46 /_   92.2 =   -0.71588 +j    18.447
------------
24           3           18.461 /_  -87.8 =    0.71488 +j   -18.447

ELEMENT = "Line.L24"
23           1           55.854 /_  -29.0 =     48.834 +j   -27.109
23           2        0.0039168 /_  -34.8 =  0.0032171 +j -0.0022342
23           3           36.944 /_   92.2 =    -1.4387 +j    36.916
------------
25           1           55.854 /_  151.0 =    -48.834 +j     27.11
25           2        0.0031039 /_  145.2 =  -0.0025495 +j 0.0017705
25           3           36.944 /_  -87.8 =      1.438 +j   -36.916

ELEMENT = "Line.L25"
25R          1           18.633 /_  -29.1 =     16.288 +j   -9.0496
25R          3           18.589 /_   92.2 =   -0.72304 +j    18.575
------------
26           1           18.633 /_  150.9 =    -16.288 +j    9.0505
26           3            18.59 /_  -87.8 =    0.72231 +j   -18.576

ELEMENT = "Line.L26"
25           1           37.221 /_  -29.0 =     32.546 +j    -18.06
25           2        0.0031039 /_  -34.8 =  0.0025495 +j -0.0017705
25           3           18.472 /_   92.2 =   -0.71948 +j    18.458
------------
28           1           37.221 /_  151.0 =    -32.546 +j    18.061
28           2        0.0025127 /_  145.2 =  -0.0020639 +j 0.0014332
28           3           18.472 /_  -87.8 =    0.71896 +j   -18.458

ELEMENT = "Line.L27"
26           1           18.633 /_  -29.1 =     16.288 +j   -9.0505
26           3       0.00072535 /_ -142.3 =  -0.00057372 +j -0.00044382
------------
27           1           18.634 /_  150.9 =    -16.288 +j    9.0512
27           3       1.819E-011 /_ -126.9 =  -1.0914E-011 +j -1.4552E-011

ELEMENT = "Line.L28"
26           3            18.59 /_   92.2 =   -0.72174 +j    18.576
------------
31           3            18.59 /_  -87.8 =    0.72133 +j   -18.576

ELEMENT = "Line.L29"
27           1           18.634 /_  -29.1 =     16.288 +j   -9.0512
------------
33           1           18.634 /_  150.9 =    -16.288 +j    9.0522

ELEMENT = "Line.L30"
28           1           18.587 /_  -29.0 =     16.251 +j   -9.0208
28           2        0.0025127 /_  -34.8 =  0.0020639 +j -0.0014332
28           3           18.472 /_   92.2 =   -0.71896 +j    18.458
------------
29           1           18.587 /_  151.0 =    -16.251 +j    9.0219
29           2        0.0016259 /_  145.2 =  -0.0013355 +j 0.00092736
29           3           18.472 /_  -87.8 =    0.71819 +j   -18.458

ELEMENT = "Line.L31"
29           1        0.0018807 /_   83.5 =  0.00021185 +j 0.0018687
29           2        0.0016259 /_  -34.8 =  0.0013355 +j -0.00092736
29           3           18.472 /_   92.2 =   -0.71819 +j    18.458
------------
30           1       0.00068389 /_  -96.5 =  -7.7036E-005 +j -0.00067954
30           2       0.00059123 /_  145.2 =  -0.00048564 +j 0.00033721
30           3           18.473 /_  -87.8 =    0.71728 +j   -18.459

ELEMENT = "Line.L32"
30           1       0.00068389 /_   83.5 =  7.7036E-005 +j 0.00067954
30           2       0.00059123 /_  -34.8 =  0.00048564 +j -0.00033721
30           3       0.00064528 /_ -143.6 =  -0.00051953 +j -0.00038272
------------
250          1      2.3647E-011 /_  -67.4 =  9.0949E-012 +j -2.1828E-011
250          2      1.1647E-011 /_  141.3 =  -9.0949E-012 +j 7.276E-012
250          3       2.058E-011 /_ -135.0 =  -1.4552E-011 +j -1.4552E-011

ELEMENT = "Line.L33"
31           3           9.2968 /_   92.2 =   -0.36039 +j    9.2898
------------
32           3           9.2971 /_  -87.8 =    0.35984 +j   -9.2901

ELEMENT = "Line.L34"
34           3           27.447 /_   92.3 =    -1.1078 +j    27.424
------------
15           3           27.447 /_  -87.7 =     1.1076 +j   -27.425

ELEMENT = "Line.L35"
35           1           18.544 /_  -28.9 =     16.227 +j   -8.9753
35           2           18.373 /_ -147.9 =    -15.566 +j   -9.7603
------------
36           1           18.545 /_  151.0 =    -16.227 +j     8.977
36           2           18.374 /_   32.1 =     15.568 +j    9.7592

ELEMENT = "Line.L36"
35           1           108.65 /_  -34.9 =      89.08 +j   -62.202
35           2            108.5 /_ -155.4 =    -98.658 +j   -45.156
35           3           98.118 /_   86.6 =     5.8229 +j    97.946
------------
40           1           108.65 /_  145.1 =     -89.08 +j    62.203
40           2            108.5 /_   24.6 =     98.659 +j    45.155
40           3           98.119 /_  -93.4 =    -5.8235 +j   -97.946

ELEMENT = "Line.L37"
36           1           18.545 /_  -29.0 =     16.227 +j    -8.977
------------
37           1           18.545 /_  151.0 =    -16.227 +j    8.9776

ELEMENT = "Line.L38"
36           2           18.374 /_ -147.9 =    -15.568 +j   -9.7592
------------
38           2           18.374 /_   32.1 =     15.568 +j    9.7589

ELEMENT = "Line.L39"
38           2            9.057 /_ -147.9 =    -7.6741 +j   -4.8102
------------
39           2           9.0573 /_   32.1 =     7.6747 +j    4.8098

ELEMENT = "Line.L40"
40           3           9.2192 /_   92.2 =   -0.34959 +j    9.2126
------------
41           3           9.2195 /_  -87.8 =      0.349 +j   -9.2129

ELEMENT = "Line.L41"
40           1           108.65 /_  -34.9 =      89.08 +j   -62.203
40           2            108.5 /_ -155.4 =    -98.659 +j   -45.155
40           3           88.948 /_   86.0 =     6.1731 +j    88.733
------------
42           1           108.65 /_  145.1 =    -89.081 +j    62.204
42           2            108.5 /_   24.6 =     98.659 +j    45.155
42           3           88.948 /_  -94.0 =    -6.1738 +j   -88.734

ELEMENT = "Line.L42"
42           2           19.129 /_ -148.0 =    -16.218 +j   -10.143
------------
43           2           19.129 /_   32.0 =     16.219 +j    10.142

ELEMENT = "Line.L43"
42           1           99.329 /_  -35.5 =      80.88 +j    -57.66
42           2           89.568 /_ -157.0 =    -82.441 +j   -35.012
42           3           88.948 /_   86.0 =     6.1738 +j    88.734
------------
44           1            99.33 /_  144.5 =     -80.88 +j    57.661
44           2           89.568 /_   23.0 =     82.442 +j    35.011
44           3           88.948 /_  -94.0 =    -6.1743 +j   -88.734

ELEMENT = "Line.L44"
44           1           18.711 /_  -29.0 =      16.36 +j   -9.0798
------------
45           1           18.711 /_  151.0 =     -16.36 +j    9.0802

ELEMENT = "Line.L45"
44           1           80.765 /_  -37.0 =      64.52 +j   -48.581
44           2           89.568 /_ -157.0 =    -82.442 +j   -35.011
44           3           88.948 /_   86.0 =     6.1743 +j    88.734
------------
47           1           80.766 /_  143.0 =     -64.52 +j    48.582
47           2           89.569 /_   23.0 =     82.443 +j    35.011
47           3           88.949 /_  -94.0 =     -6.175 +j   -88.734

ELEMENT = "Line.L46"
45           1           9.3938 /_  -29.0 =     8.2134 +j   -4.5591
------------
46           1           9.3941 /_  151.0 =    -8.2133 +j    4.5597

ELEMENT = "Line.L47"
47           1           35.483 /_  -38.0 =     27.953 +j   -21.855
47           2           36.715 /_ -157.0 =    -33.794 +j    -14.35
47           3           36.079 /_   83.1 =     4.3464 +j    35.816
------------
48           1           35.483 /_  142.0 =    -27.953 +j    21.856
48           2           36.715 /_   23.0 =     33.795 +j     14.35
48           3           36.079 /_  -96.9 =    -4.3468 +j   -35.816

ELEMENT = "Line.L48"
47           1             27.4 /_  -35.0 =     22.458 +j   -15.698
47           2           34.945 /_ -157.0 =    -32.165 +j   -13.659
47           3           35.142 /_   90.5 =   -0.32592 +j     35.14
------------
49           1             27.4 /_  145.0 =    -22.457 +j    15.699
49           2           34.946 /_   23.0 =     32.166 +j    13.659
49           3           35.142 /_  -89.5 =    0.32516 +j    -35.14

ELEMENT = "Line.L49"
49           1           9.3992 /_  -29.1 =     8.2166 +j   -4.5642
49           2        0.0031825 /_   -9.6 =  0.0031383 +j -0.000529
49           3           18.492 /_   92.0 =   -0.65711 +j     18.48
------------
50           1           9.3993 /_  150.9 =    -8.2164 +j    4.5648
50           2         0.002387 /_  170.4 =  -0.0023537 +j 0.00039678
50           3           18.492 /_  -88.0 =    0.65635 +j    -18.48

ELEMENT = "Line.L50"
50           1           9.3993 /_  -29.1 =     8.2164 +j   -4.5648
50           2         0.002387 /_   -9.6 =  0.0023537 +j -0.00039678
50           3        0.0024175 /_ -159.8 =  -0.0022688 +j -0.00083479
------------
51           1           9.3993 /_  150.9 =    -8.2161 +j    4.5654
51           2        0.0015913 /_  170.4 =  -0.0015692 +j 0.00026453
51           3        0.0016116 /_   20.2 =  0.0015125 +j 0.00055653

ELEMENT = "Line.L51"
51           1        0.0012256 /_   69.7 =  0.00042495 +j 0.0011496
51           2        0.0015913 /_   -9.6 =  0.0015692 +j -0.00026453
51           3        0.0016116 /_ -159.8 =  -0.0015125 +j -0.00055653
------------
151          1      7.4564E-008 /_   -2.5 =  7.4494E-008 +j -3.2369E-009
151          2      1.4819E-008 /_ -121.5 =  -7.738E-009 +j -1.2638E-008
151          3      1.7675E-008 /_  118.6 =  -8.4583E-009 +j 1.552E-008

ELEMENT = "Line.L52"
52           1           314.06 /_  -13.4 =     305.46 +j    -73.01
52           2           244.36 /_ -129.3 =    -154.79 +j   -189.08
52           3           265.01 /_  112.1 =    -99.687 +j    245.55
------------
53           1           314.06 /_  166.6 =    -305.46 +j    73.011
53           2           244.36 /_   50.7 =     154.79 +j    189.08
53           3           265.01 /_  -67.9 =     99.686 +j   -245.55

ELEMENT = "Line.L53"
53           1           296.15 /_  -12.5 =     289.16 +j   -63.988
53           2           244.36 /_ -129.3 =    -154.79 +j   -189.08
53           3           265.01 /_  112.1 =    -99.686 +j    245.55
------------
54           1           296.15 /_  167.5 =    -289.16 +j    63.988
54           2           244.36 /_   50.7 =     154.79 +j    189.08
54           3           265.01 /_  -67.9 =     99.686 +j   -245.55

ELEMENT = "Line.L54"
54           1           9.3004 /_  -29.1 =     8.1297 +j   -4.5173
54           2           9.0095 /_ -148.0 =    -7.6371 +j   -4.7796
54           3        0.0016139 /_ -155.5 =  -0.0014684 +j -0.00066964
------------
55           1           9.3009 /_  150.9 =    -8.1298 +j    4.5182
55           2           9.0098 /_   32.0 =     7.6379 +j    4.7791
55           3       0.00080693 /_   24.5 =  0.00073419 +j 0.00033483

ELEMENT = "Line.L55"
54           1           287.25 /_  -11.9 =     281.03 +j   -59.471
54           2           235.84 /_ -128.6 =    -147.15 +j    -184.3
54           3           265.01 /_  112.1 =    -99.684 +j    245.55
------------
57           1           287.25 /_  168.1 =    -281.03 +j    59.472
57           2           235.84 /_   51.4 =     147.16 +j     184.3
57           3           265.01 /_  -67.9 =     99.683 +j   -245.55

ELEMENT = "Line.L56"
55           1       0.00087824 /_   96.1 =  -9.3351E-005 +j 0.00087326
55           2           9.0098 /_ -148.0 =    -7.6379 +j   -4.7791
55           3       0.00080693 /_ -155.5 =  -0.00073419 +j -0.00033483
------------
56           1      1.0606E-011 /_  121.0 =  -5.457E-012 +j 9.0949E-012
56           2           9.0102 /_   32.0 =     7.6387 +j    4.7785
56           3       1.029E-011 /_ -135.0 =  -7.276E-012 +j -7.276E-012

ELEMENT = "Line.L57"
57           2           18.358 /_ -148.2 =    -15.597 +j   -9.6826
------------
58           2           18.358 /_   31.8 =     15.597 +j    9.6823

ELEMENT = "Line.L58"
57           1           287.25 /_  -11.9 =     281.03 +j   -59.472
57           2           218.63 /_ -127.0 =    -131.56 +j   -174.62
57           3           265.01 /_  112.1 =    -99.683 +j    245.55
------------
60           1           287.25 /_  168.1 =    -281.03 +j    59.474
60           2           218.63 /_   53.0 =     131.56 +j    174.62
60           3           265.01 /_  -67.9 =     99.681 +j   -245.55

ELEMENT = "Line.L59"
58           2            9.041 /_ -148.2 =    -7.6814 +j   -4.7682
------------
59           2           9.0412 /_   31.8 =     7.6818 +j    4.7679

ELEMENT = "Line.L60"
60           1        0.0018483 /_   91.6 =  -5.0432E-005 +j 0.0018476
60           2        0.0017644 /_  -40.0 =  0.0013512 +j -0.0011345
60           3        0.0015857 /_ -148.9 =  -0.0013581 +j -0.00081845
------------
61           1      1.3774E-005 /_   88.3 =  4.144E-007 +j 1.3768E-005
61           2      1.4132E-005 /_  -30.0 =  1.2235E-005 +j -7.0735E-006
61           3      1.4013E-005 /_ -150.7 =  -1.2225E-005 +j -6.8493E-006

ELEMENT = "Line.L61"
60           1           45.368 /_  -41.3 =     34.075 +j   -29.953
60           2           52.268 /_ -150.5 =    -45.499 +j   -25.725
60           3           80.756 /_   92.2 =    -3.1624 +j    80.694
------------
62           1           45.373 /_  138.7 =    -34.074 +j    29.961
62           2           52.272 /_   29.5 =     45.506 +j    25.721
62           3           80.759 /_  -87.8 =     3.1556 +j   -80.698

ELEMENT = "Line.L62"
62           1           45.373 /_  -41.3 =     34.074 +j   -29.961
62           2           52.272 /_ -150.5 =    -45.506 +j   -25.721
62           3           62.054 /_   92.6 =    -2.7612 +j    61.993
------------
63           1           45.376 /_  138.7 =    -34.074 +j    29.966
63           2           52.275 /_   29.5 =     45.511 +j    25.718
63           3           62.056 /_  -87.5 =     2.7565 +j   -61.995

ELEMENT = "Line.L63"
63           1           27.126 /_  -49.2 =     17.736 +j   -20.525
63           2           52.275 /_ -150.5 =    -45.511 +j   -25.718
63           3           62.056 /_   92.5 =    -2.7565 +j    61.995
------------
64           1           27.134 /_  130.8 =    -17.735 +j    20.535
64           2            52.28 /_   29.5 =      45.52 +j    25.712
64           3           62.061 /_  -87.5 =      2.747 +j       -62

ELEMENT = "Line.L64"
64           1           27.134 /_  -49.2 =     17.735 +j   -20.535
64           2           17.995 /_ -157.5 =    -16.622 +j   -6.8928
64           3           62.061 /_   92.5 =     -2.747 +j        62
------------
65           1           27.143 /_  130.8 =    -17.735 +j    20.548
65           2           18.002 /_   22.5 =     16.633 +j    6.8858
65           3           62.066 /_  -87.5 =     2.7355 +j   -62.006

ELEMENT = "Line.L65"
65           1         0.009798 /_   86.5 =  0.0005911 +j 0.0097801
65           2         0.010152 /_  -31.9 =  0.0086233 +j -0.005358
65           3           34.607 /_   92.7 =    -1.6436 +j    34.568
------------
66           1       1.875E-012 /_  -76.0 =  4.5475E-013 +j -1.819E-012
66           2      8.2358E-012 /_ -173.7 =  -8.1855E-012 +j -9.0949E-013
66           3           34.611 /_  -87.3 =     1.6348 +j   -34.573

ELEMENT = "Line.L66"
67           1           54.137 /_  -30.4 =     46.714 +j    -27.36
------------
68           1           54.137 /_  149.6 =    -46.714 +j     27.36

ELEMENT = "Line.L67"
67           1           118.67 /_   22.7 =     109.49 +j    45.775
67           2           126.06 /_ -108.1 =    -39.091 +j   -119.84
67           3           132.87 /_  134.1 =     -92.46 +j    95.418
------------
72           1           118.67 /_ -157.3 =    -109.49 +j   -45.774
72           2           126.06 /_   71.9 =     39.091 +j    119.84
72           3           132.87 /_  -45.9 =     92.459 +j   -95.418

ELEMENT = "Line.L68"
67           1           82.706 /_  -30.6 =     71.224 +j   -42.041
67           2           54.291 /_ -148.8 =    -46.439 +j   -28.125
67           3           64.456 /_   91.0 =    -1.1316 +j    64.446
------------
97           1           82.706 /_  149.4 =    -71.224 +j    42.042
97           2           54.292 /_   31.2 =      46.44 +j    28.124
97           3           64.456 /_  -89.0 =     1.1308 +j   -64.446

ELEMENT = "Line.L69"
68           1           45.134 /_  -30.4 =     38.943 +j   -22.816
------------
69           1           45.135 /_  149.6 =    -38.943 +j    22.817

ELEMENT = "Line.L70"
69           1           27.099 /_  -30.4 =     23.378 +j   -13.704
------------
70           1           27.099 /_  149.6 =    -23.378 +j    13.705

ELEMENT = "Line.L71"
70           1            18.07 /_  -30.4 =     15.588 +j   -9.1395
------------
71           1            18.07 /_  149.6 =    -15.588 +j    9.1401

ELEMENT = "Line.L72"
72           3           55.341 /_   90.9 =   -0.86695 +j    55.334
------------
73           3           55.341 /_  -89.1 =    0.86643 +j   -55.334

ELEMENT = "Line.L73"
72           1           118.67 /_   22.7 =     109.49 +j    45.774
72           2           126.06 /_ -108.1 =    -39.091 +j   -119.84
72           3           99.979 /_  156.4 =    -91.592 +j    40.084
------------
76           1           118.67 /_ -157.3 =    -109.49 +j   -45.773
76           2           126.06 /_   71.9 =     39.092 +j    119.84
76           3           99.978 /_  -23.6 =     91.591 +j   -40.085

ELEMENT = "Line.L74"
73           3           37.303 /_   90.9 =   -0.57509 +j    37.298
------------
74           3           37.303 /_  -89.1 =    0.57443 +j   -37.299

ELEMENT = "Line.L75"
74           3           18.088 /_   90.9 =   -0.27577 +j    18.086
------------
75           3           18.088 /_  -89.1 =    0.27502 +j   -18.086

ELEMENT = "Line.L76"
76           1           77.713 /_   60.5 =     38.261 +j    67.641
76           2           77.286 /_  -57.3 =     41.768 +j   -65.028
76           3           77.431 /_ -177.4 =    -77.351 +j   -3.5225
------------
77           1           77.711 /_ -119.5 =    -38.261 +j    -67.64
77           2           77.285 /_  122.7 =    -41.767 +j    65.027
77           3            77.43 /_    2.6 =      77.35 +j    3.5218

ELEMENT = "Line.L77"
76           1            32.68 /_    5.6 =     32.524 +j    3.1973
76           2           57.688 /_ -129.8 =    -36.962 +j   -44.292
76           3           21.024 /_  157.6 =    -19.436 +j     8.018
------------
86           1            32.68 /_ -174.4 =    -32.523 +j   -3.1953
86           2           57.689 /_   50.2 =     36.964 +j    44.291
86           3           21.023 /_  -22.4 =     19.433 +j    -8.019

ELEMENT = "Line.L78"
77           1           77.711 /_   60.5 =     38.261 +j     67.64
77           2           79.891 /_  -44.2 =     57.249 +j   -55.724
77           3            77.43 /_ -177.4 =     -77.35 +j   -3.5218
------------
78           1           77.711 /_ -119.5 =    -38.261 +j    -67.64
78           2           79.891 /_  135.8 =    -57.249 +j    55.723
78           3            77.43 /_    2.6 =     77.349 +j    3.5216

ELEMENT = "Line.L79"
78           1           19.341 /_  -30.5 =     16.658 +j   -9.8278
78           2       0.00066837 /_  -28.9 =  0.00058526 +j -0.0003228
78           3       0.00079943 /_ -148.3 =  -0.00068031 +j -0.00041984
------------
79           1           19.341 /_  149.5 =    -16.658 +j    9.8285
79           2      6.5585E-012 /_  -33.7 =  5.457E-012 +j -3.638E-012
79           3       1.627E-011 /_  153.4 =  -1.4552E-011 +j 7.276E-012

ELEMENT = "Line.L80"
78           1           80.423 /_   74.4 =     21.603 +j    77.468
78           2            79.89 /_  -44.2 =     57.248 +j   -55.723
78           3           77.429 /_ -177.4 =    -77.349 +j   -3.5212
------------
80           1           80.422 /_ -105.6 =    -21.603 +j   -77.466
80           2           79.889 /_  135.8 =    -57.247 +j    55.722
80           3           77.427 /_    2.6 =     77.347 +j    3.5203

ELEMENT = "Line.L81"
80           1           80.422 /_   74.4 =     21.603 +j    77.466
80           2           86.285 /_  -32.6 =      72.71 +j   -46.458
80           3           77.427 /_ -177.4 =    -77.347 +j   -3.5203
------------
81           1           80.421 /_ -105.6 =    -21.602 +j   -77.465
81           2           86.284 /_  147.4 =     -72.71 +j    46.458
81           3           77.427 /_    2.6 =     77.347 +j      3.52

ELEMENT = "Line.L82"
81           1           80.421 /_   74.4 =     21.602 +j    77.465
81           2           86.284 /_  -32.6 =      72.71 +j   -46.458
81           3           82.885 /_ -158.4 =    -77.056 +j   -30.534
------------
82           1            80.42 /_ -105.6 =    -21.602 +j   -77.465
82           2           86.284 /_  147.4 =    -72.709 +j    46.457
82           3           82.884 /_   21.6 =     77.055 +j    30.534

ELEMENT = "Line.L83"
81           3           27.016 /_   90.6 =   -0.29064 +j    27.014
------------
84           3           27.016 /_  -89.4 =    0.28936 +j   -27.015

ELEMENT = "Line.L84"
82           1           86.805 /_   85.9 =     6.2173 +j    86.582
82           2           86.284 /_  -32.6 =     72.709 +j   -46.457
82           3           82.884 /_ -158.4 =    -77.055 +j   -30.534
------------
83           1           86.804 /_  -94.1 =    -6.2171 +j   -86.581
83           2           86.283 /_  147.4 =    -72.708 +j    46.457
83           3           82.884 /_   21.6 =     77.055 +j    30.533

ELEMENT = "Line.L85"
84           3           18.018 /_   90.6 =   -0.19089 +j    18.017
------------
85           3           18.018 /_  -89.4 =    0.18999 +j   -18.017

ELEMENT = "Line.L86"
86           1            32.68 /_    5.6 =     32.523 +j    3.1953
86           2           49.228 /_ -126.4 =    -29.194 +j   -39.637
86           3           21.023 /_  157.6 =    -19.433 +j     8.019
------------
87           1           32.679 /_ -174.4 =    -32.523 +j   -3.1938
87           2           49.228 /_   53.6 =     29.195 +j    39.636
87           3           21.022 /_  -22.4 =     19.432 +j   -8.0198

ELEMENT = "Line.L87"
87           1               21 /_   36.0 =     16.991 +j    12.341
------------
88           1               21 /_ -144.0 =    -16.991 +j   -12.341

ELEMENT = "Line.L88"
87           1           18.025 /_  -30.5 =     15.532 +j   -9.1472
87           2           33.266 /_ -114.2 =    -13.629 +j   -30.346
87           3           21.022 /_  157.6 =    -19.432 +j    8.0198
------------
89           1           18.025 /_  149.5 =    -15.531 +j    9.1481
89           2           33.266 /_   65.8 =     13.629 +j    30.346
89           3           21.021 /_  -22.4 =     19.431 +j   -8.0203

ELEMENT = "Line.L89"
89           2           21.161 /_  -84.7 =     1.9698 +j   -21.069
------------
90           2           21.161 /_   95.3 =    -1.9694 +j    21.069

ELEMENT = "Line.L90"
89           1           18.025 /_  -30.5 =     15.531 +j   -9.1481
89           2           18.149 /_ -149.3 =    -15.599 +j   -9.2766
89           3           21.021 /_  157.6 =    -19.431 +j    8.0203
------------
91           1           18.026 /_  149.5 =    -15.531 +j    9.1488
...